OPT_V9/8ts_w_storgae_myc_NEW_PARAM/powerflow_results_t4.txt
Pandapower Network Debug Info
==================================================

BUS:
       vm_pu  va_degree      p_mw    q_mvar
0   1.006674   0.242157 -0.004810 -0.000844
1   1.009783   0.363595 -0.003123  0.000200
2   1.011885   0.414695 -0.001950 -0.000513
3   1.009106   0.336645 -0.003504 -0.000223
4   1.004286   0.213382 -0.002835  0.000221
5   1.006317   0.242076 -0.002704 -0.000640
6   1.010679   0.435947 -0.005070  0.000000
7   1.004141   0.160951 -0.005847 -0.000451
8   1.001064   0.044757 -0.003197 -0.000641
9   0.999957   0.001418  0.005822  0.011185
10  0.999951   0.001454  0.004030  0.007251
11  0.999947   0.001391  0.005974  0.002389
12  0.999972   0.002720  0.001606  0.006933
13  0.999962   0.002496  0.005501  0.007550
14  0.999957   0.002304  0.010106  0.001038
15  0.999982   0.001042  0.000000  0.000000
16  0.999982   0.001042  0.000000  0.000000
17  0.999975   0.002608  0.000000  0.000000
18  0.999975   0.002607  0.000000  0.000000
19  1.000000   0.000000 -0.002570 -0.024530
20  1.000000   0.000003  0.000000  0.000000
21  1.000000   0.000000  0.002311 -0.019095
22  1.000000   0.000002  0.000000  0.000000
--------------------------------------------------

LINE:
    p_from_mw   q_from_mvar   p_to_mw  q_to_mvar         pl_mw       ql_mvar  i_from_ka   i_to_ka      i_ka  vm_from_pu  va_from_degree  vm_to_pu  va_to_degree  loading_percent
0    0.002560  2.053047e-02 -0.002559  -0.020530  4.186932e-07  3.264620e-07   0.000796  0.000796  0.000796    1.000000        0.000003  0.999982      0.001042         0.346234
1   -0.002321  1.509470e-02  0.002321  -0.015094  6.273738e-07  4.891737e-07   0.000588  0.000588  0.000588    1.000000        0.000002  0.999975      0.002608         0.255575
2    0.015827  2.082562e-02 -0.015826  -0.020825  5.290963e-07  4.125451e-07   0.001007  0.001007  0.001007    0.999982        0.001042  0.999957      0.001418         0.437742
3    0.001606  6.933360e-03 -0.001606  -0.006933  1.751702e-08  1.365831e-08   0.000274  0.000274  0.000274    0.999975        0.002608  0.999972      0.002720         0.119103
4    0.015608  8.589038e-03 -0.015608  -0.008589  1.735474e-07  1.353177e-07   0.000686  0.000686  0.000686    0.999975        0.002608  0.999962      0.002496         0.298138
5   -0.013277 -1.295388e-03  0.013361   0.001360  8.324240e-05  6.490547e-05   0.019256  0.019256  0.019256    0.999982        0.001042  1.006674      0.242157         8.372027
6   -0.007706 -5.872007e-04  0.007752   0.000623  4.633734e-05  3.612999e-05   0.011155  0.011155  0.011155    0.999975        0.002607  1.006317      0.242076         4.849951
7   -0.005823 -4.332481e-04  0.005847   0.000451  2.303965e-05  1.796440e-05   0.008429  0.008429  0.008429    0.999975        0.002607  1.004141      0.160951         3.664733
8   -0.006016 -4.076386e-04  0.006022   0.000413  6.251573e-06  4.874454e-06   0.008703  0.008703  0.008703    0.999975        0.002607  1.001064      0.044757         3.784085
9   -0.010004 -9.639774e-03  0.010004   0.009640  6.675384e-08  5.204907e-08   0.000535  0.000535  0.000535    0.999951        0.001454  0.999957      0.001418         0.232505
10  -0.005974 -2.389117e-03  0.005975   0.002389  2.025071e-08  1.578981e-08   0.000248  0.000248  0.000248    0.999947        0.001391  0.999951      0.001454         0.107685
11  -0.010106 -1.038456e-03  0.010106   0.001038  5.048244e-08  3.936199e-08   0.000391  0.000391  0.000391    0.999957        0.002304  0.999962      0.002496         0.170023
12   0.005069  3.110159e-04 -0.005054  -0.000299  1.496707e-05  1.167007e-05   0.007260  0.007260  0.007260    1.009783        0.363595  1.006674      0.242157         3.156433
13   0.003504  2.231789e-04 -0.003496  -0.000217  8.083703e-06  6.302996e-06   0.005022  0.005022  0.005022    1.009106        0.336645  1.006674      0.242157         2.183590
14   0.001950  5.134262e-04 -0.001947  -0.000511  3.593978e-06  2.802284e-06   0.002877  0.002877  0.002877    1.011885        0.414695  1.009783      0.363595         1.250871
15  -0.002826  2.285403e-04  0.002835  -0.000221  9.757500e-06  7.608084e-06   0.004087  0.004087  0.004087    1.001064        0.044757  1.004286      0.213382         1.777131
16   0.005070  2.836297e-09 -0.005048   0.000017  2.190508e-05  1.707975e-05   0.007240  0.007240  0.007240    1.010679        0.435947  1.006317      0.242076         3.147815
--------------------------------------------------

TRAFO:
    p_hv_mw  q_hv_mvar   p_lv_mw  q_lv_mvar    pl_mw  ql_mvar   i_hv_ka   i_lv_ka  vm_hv_pu  va_hv_degree  vm_lv_pu  va_lv_degree  loading_percent
0 -0.013267  -0.000295  0.013277   0.001295  0.00001    0.001  0.000511  0.019256  0.999982      0.001042  0.999982      0.001042         0.133407
1 -0.019535  -0.000428  0.019545   0.001428  0.00001    0.001  0.000752  0.028287  0.999975      0.002608  0.999975      0.002607         0.195978
2  0.002570   0.024530 -0.002560  -0.020530  0.00001    0.004  0.000203  0.000796  1.000000      0.000000  1.000000      0.000003         0.061662
3 -0.002311   0.019095  0.002321  -0.015095  0.00001    0.004  0.000159  0.000588  1.000000      0.000000  1.000000      0.000002         0.048085
--------------------------------------------------
